Modified 4 Bus/6 Node Base System/4busDYBal_VLL_Node.Txt

LINE-LINE VOLTAGES BY BUS & NODE

Bus       Node    VLN (kV)   Angle      pu     Base kV 

SOURCEBUS 1-2      12.47 /_   30.0   0.99997    12.470
   -      2-3      12.47 /_  -90.0   0.99997    12.470
   -      3-1      12.47 /_  150.0   0.99997    12.470
N2 ...... 1-2     12.321 /_   29.7   0.98801    12.470
   -      2-3     12.329 /_  -90.5    0.9887    12.470
   -      3-1     12.292 /_  149.6   0.98574    12.470
N3 ...... 1-2     3.8552 /_   -3.9   0.92672     4.160
   -      2-3     3.8819 /_ -124.0   0.93314     4.160
   -      3-1       3.86 /_  115.7   0.92789     4.160
N4 ...... 1-2     3.3093 /_   -8.5    0.7955     4.160
   -      2-3     3.4197 /_ -130.7   0.82203     4.160
   -      3-1     3.2529 /_  108.7   0.78196     4.160
N5 ...... 1-2     3.2876 /_   -8.8   0.79029     4.160
   -      2-3      3.402 /_ -131.1   0.81778     4.160
   -      3-1     3.2294 /_  108.3    0.7763     4.160
N6 ...... 1-2      3.266 /_   -9.0   0.78509     4.160
   -      2-3     3.3844 /_ -131.4   0.81356     4.160
   -      3-1      3.206 /_  108.0   0.77067     4.160
